Infrared Spectrum: CHLOROFORM
Formula: C H Cl3
CAS: 67-66-3
State: LIQUID (NEAT)
Class: COBLENTZ III
Instrument: DOW KBr FOREPRISM-GRATING
Instrument parameters: BLAZED AT 3.5, 12.0, 20.0 MICRON, CHANGED AT 5.0, 7.5, 14.9 MICRON
Sampling: TRANSMISSION
Path length: 0.011 CM CELL
Resolution: 4
Origin: DOW CHEMICAL COMPANY
1/CM	TRANSMITTANCE
452.607	0.953
461.295	0.967
469.984	0.974
478.672	0.975
487.36	0.955
496.049	0.941
504.737	0.959
513.425	0.991
522.114	1.023
530.802	1.038
539.49	1.039
548.179	1.039
556.867	1.039
565.555	1.033
574.244	1.033
582.932	1.035
591.621	1.033
600.309	1.024
608.997	0.997
617.686	0.895
626.374	0.69
635.062	0.819
643.751	0.872
652.439	0.725
661.127	0.408
669.816	0
678.504	0.184
687.192	0.292
695.881	0.262
704.569	0.167
713.257	0.059
721.946	0.008
730.634	0
739.322	0
748.011	0
756.699	0
765.387	0
774.076	0
782.764	0
791.452	0.005
800.141	0.051
808.829	0.256
817.518	0.453
826.206	0.642
834.894	0.763
843.583	0.781
852.271	0.706
860.959	0.87
869.648	0.927
878.336	0.911
887.024	0.953
895.713	0.967
904.401	0.951
913.089	0.889
921.778	0.736
930.466	0.523
939.154	0.827
947.843	0.929
956.531	0.938
965.219	0.967
973.908	0.98
982.596	0.98
991.284	0.976
999.973	0.949
1008.66	0.903
1017.35	0.849
1026.04	0.819
1034.73	0.815
1043.41	0.824
1052.1	0.843
1060.79	0.888
1069.48	0.917
1078.17	0.93
1086.86	0.949
1095.54	0.961
1104.23	0.966
1112.92	0.966
1121.61	0.963
1130.3	0.952
1138.99	0.933
1147.67	0.903
1156.36	0.866
1165.05	0.819
1173.74	0.758
1182.43	0.611
1191.12	0.47
1199.8	0.165
1208.49	0.005
1217.18	0.002
1225.87	0.008
1234.56	0.191
1243.25	0.436
1251.93	0.578
1260.62	0.694
1269.31	0.767
1278	0.828
1286.69	0.877
1295.38	0.911
1304.06	0.942
1312.75	0.957
1321.44	0.961
1330.13	0.952
1338.82	0.934
1347.51	0.98
1356.19	0.985
1364.88	0.975
1373.57	0.964
1382.26	0.949
1390.95	0.921
1399.64	0.906
1408.33	0.846
1417.01	0.722
1425.7	0.665
1434.39	0.728
1443.08	0.8
1451.77	0.9
1460.46	0.919
1469.14	0.877
1477.83	0.748
1486.52	0.83
1495.21	0.828
1503.9	0.766
1512.59	0.671
1521.27	0.611
1529.96	0.658
1538.65	0.73
1547.34	0.839
1556.03	0.913
1564.72	0.953
1573.4	0.97
1582.09	0.968
1590.78	0.985
1599.47	0.975
1608.16	0.989
1616.85	0.997
1625.53	0.998
1634.22	1.004
1642.91	1
1651.6	1.005
1660.29	1.006
1668.98	1.01
1677.66	1.006
1686.35	1.008
1695.04	1.008
1703.73	1.008
1712.42	1.004
1721.11	1.006
1729.79	1.005
1738.48	1.006
1747.17	1.005
1755.86	1.004
1764.55	1.005
1773.24	1.005
1781.92	1.002
1790.61	1.004
1799.3	1.001
1807.99	1.006
1816.68	1.006
1825.37	1.009
1834.05	1.006
1842.74	1.008
1851.43	1.005
1860.12	1.004
1868.81	1.005
1877.5	1
1886.18	0.998
1894.87	1.004
1903.56	1.004
1912.25	1.002
1920.94	1.004
1929.63	1.005
1938.31	1.005
1947	1.005
1955.69	1.002
1964.38	1.001
1973.07	1
1981.76	1.002
1990.44	1.002
1999.13	1.006
2007.82	1.009
2016.51	1.006
2025.2	1.012
2033.89	1.0125
2042.57	1.01
2051.26	1.009
2059.95	1.01
2068.64	1.0109
2077.33	1.01
2086.02	1.008
2094.7	1.006
2103.39	1.008
2112.08	1.0071
2120.77	1.005
2129.46	1.006
2138.15	1.0069
2146.83	1.005
2155.52	1.004
2164.21	1.0016
2172.9	1
2181.59	1.001
2190.28	1.001
2198.96	1
2207.65	1.0004
2216.34	0.9992
2225.03	0.9968
2233.72	0.9922
2242.41	0.987
2251.09	0.9894
2259.78	0.9904
2268.47	0.9937
2277.16	0.9976
2285.85	0.9981
2294.54	0.998
2303.22	0.997
2311.91	0.996
2320.6	0.9872
2329.29	1.006
2337.98	0.9863
2346.67	0.98
2355.35	0.986
2364.04	0.9667
2372.73	0.9581
2381.42	0.9505
2390.11	0.9106
2398.8	0.7262
2407.48	0.4896
2416.17	0.761
2424.86	0.8197
2433.55	0.8077
2442.24	0.8221
2450.93	0.8734
2459.61	0.9181
2468.3	0.9411
2476.99	0.9593
2485.68	0.9713
2494.37	0.979
2503.06	0.9853
2511.74	0.9902
2520.43	0.9917
2529.12	0.998
2537.81	0.9985
2546.5	1
2555.19	1
2563.87	1.001
2572.56	1
2581.25	1.0008
2589.94	1
2598.63	1
2607.32	1.0002
2616.01	1
2624.69	1
2633.38	1
2642.07	1.0008
2650.76	1
2659.45	0.9959
2668.14	1
2676.82	0.997
2685.51	0.993
2694.2	0.993
2702.89	0.997
2711.58	0.997
2720.27	0.9979
2728.95	0.997
2737.64	0.997
2746.33	0.997
2755.02	0.994
2763.71	0.994
2772.4	0.9966
2781.08	0.994
2789.77	0.991
2798.46	0.9931
2807.15	0.9928
2815.84	0.989
2824.53	0.989
2833.21	0.986
2841.9	0.9847
2850.59	0.9778
2859.28	0.975
2867.97	0.9639
2876.66	0.955
2885.34	0.9438
2894.03	0.932
2902.72	0.9363
2911.41	0.9449
2920.1	0.9399
2928.79	0.933
2937.47	0.9289
2946.16	0.923
2954.85	0.9149
2963.54	0.8827
2972.23	0.8357
2980.92	0.807
2989.6	0.822
2998.29	0.7917
3006.98	0.6447
3015.67	0.1039
3024.36	0.012
3033.05	0.2018
3041.73	0.4037
3050.42	0.4927
3059.11	0.6047
3067.8	0.631
3076.49	0.6567
3085.18	0.7286
3093.86	0.7745
3102.55	0.8067
3111.24	0.8377
3119.93	0.8617
3128.62	0.8849
3137.31	0.9059
3145.99	0.9168
3154.68	0.9328
3163.37	0.9439
3172.06	0.9529
3180.75	0.9559
3189.44	0.963
3198.12	0.968
3206.81	0.9719
3215.5	0.9749
3224.19	0.9789
3232.88	0.98
3241.57	0.9829
3250.25	0.983
3258.94	0.987
3267.63	0.983
3276.32	0.985
3285.01	0.983
3293.7	0.9847
3302.38	0.986
3311.07	0.989
3319.76	0.989
3328.45	0.989
3337.14	0.99
3345.83	0.989
3354.51	0.9892
3363.2	0.987
3371.89	0.986
3380.58	0.9887
3389.27	0.987
3397.96	0.986
3406.64	0.986
3415.33	0.986
3424.02	0.9862
3432.71	0.985
3441.4	0.9886
3450.09	0.989
3458.77	0.987
3467.46	0.987
3476.15	0.989
3484.84	0.991
3493.53	0.993
3502.22	0.995
3510.9	0.997
3519.59	0.9978
3528.28	0.998
3536.97	0.998
3545.66	0.998
3554.35	0.997
3563.03	0.9943
3571.72	0.9915
3580.41	0.9875
3589.1	0.983
3597.79	0.9751
3606.48	0.946
3615.16	0.9133
3623.85	0.9027
3632.54	0.9362
3641.23	0.9619
3649.92	0.9797
3658.61	0.9766
3667.29	0.9649
3675.98	0.9099
3684.67	0.8199
3693.36	0.9041
3702.05	0.9537
3710.74	0.9723
3719.42	0.984
3728.11	0.9793
3736.8	0.982
3745.49	0.9883
3754.18	0.9854
3762.87	0.976
3771.55	0.9666
3780.24	0.9796
3788.93	0.9863
3797.62	0.997
